CRYSTAL
PRIMVEC
        4.00000         0.00000         0.00000
        0.00000         4.00000         0.00000
        0.00000         0.00000         4.00000
CONVVEC
        1.00000         0.00000         0.00000 
        0.00000         1.00000         0.00000 
        0.00000         0.00000         1.00000 
PRIMCOORD
64 1
H         0.00000         0.00000         0.00000
H         1.00000         0.00000         0.00000
H         2.00000         0.00000         0.00000
H         3.00000         0.00000         0.00000
H         0.00000         1.00000         0.00000
H         1.00000         1.00000         0.00000
H         2.00000         1.00000         0.00000
H         3.00000         1.00000         0.00000
H         0.00000         2.00000         0.00000
H         1.00000         2.00000         0.00000
H         2.00000         2.00000         0.00000
H         3.00000         2.00000         0.00000
H         0.00000         3.00000         0.00000
H         1.00000         3.00000         0.00000
H         2.00000         3.00000         0.00000
H         3.00000         3.00000         0.00000
H         0.00000         0.00000         1.00000
H         1.00000         0.00000         1.00000
H         2.00000         0.00000         1.00000
H         3.00000         0.00000         1.00000
H         0.00000         1.00000         1.00000
H         1.00000         1.00000         1.00000
H         2.00000         1.00000         1.00000
H         3.00000         1.00000         1.00000
H         0.00000         2.00000         1.00000
H         1.00000         2.00000         1.00000
H         2.00000         2.00000         1.00000
H         3.00000         2.00000         1.00000
H         0.00000         3.00000         1.00000
H         1.00000         3.00000         1.00000
H         2.00000         3.00000         1.00000
H         3.00000         3.00000         1.00000
H         0.00000         0.00000         2.00000
H         1.00000         0.00000         2.00000
H         2.00000         0.00000         2.00000
H         3.00000         0.00000         2.00000
H         0.00000         1.00000         2.00000
H         1.00000         1.00000         2.00000
H         2.00000         1.00000         2.00000
H         3.00000         1.00000         2.00000
H         0.00000         2.00000         2.00000
H         1.00000         2.00000         2.00000
H         2.00000         2.00000         2.00000
H         3.00000         2.00000         2.00000
H         0.00000         3.00000         2.00000
H         1.00000         3.00000         2.00000
H         2.00000         3.00000         2.00000
H         3.00000         3.00000         2.00000
H         0.00000         0.00000         3.00000
H         1.00000         0.00000         3.00000
H         2.00000         0.00000         3.00000
H         3.00000         0.00000         3.00000
H         0.00000         1.00000         3.00000
H         1.00000         1.00000         3.00000
H         2.00000         1.00000         3.00000
H         3.00000         1.00000         3.00000
H         0.00000         2.00000         3.00000
H         1.00000         2.00000         3.00000
H         2.00000         2.00000         3.00000
H         3.00000         2.00000         3.00000
H         0.00000         3.00000         3.00000
H         1.00000         3.00000         3.00000
H         2.00000         3.00000         3.00000
H         3.00000         3.00000         3.00000
